25242512
  -OEChem-02112401262D

125129  0     1  0  0  0  0  0999 V2000
    2.7661    1.2488    0.0000 F   0  0  0  0  0  0  0  0  0  0  0  0
    6.5393    3.4617    0.0000 O   0  0  0  0  0  0  0  0  0  0  0  0
    4.5981    2.4899    0.0000 O   0  0  0  0  0  0  0  0  0  0  0  0
    5.4641   -2.0101    0.0000 O   0  0  0  0  0  0  0  0  0  0  0  0
    6.0713    0.4558    0.0000 O   0  0  0  0  0  0  0  0  0  0  0  0
    3.7320   -2.0101    0.0000 O   0  0  0  0  0  0  0  0  0  0  0  0
    8.9282    0.9899    0.0000 O   0  0  0  0  0  0  0  0  0  0  0  0
    8.0280    4.4308    0.0000 O   0  0  0  0  0  0  0  0  0  0  0  0
    5.4641   -4.0101    0.0000 O   0  0  0  0  0  0  0  0  0  0  0  0
    5.4641    0.9899    0.0000 O   0  0  0  0  0  0  0  0  0  0  0  0
    2.8660    2.4899    0.0000 O   0  0  0  0  0  0  0  0  0  0  0  0
    7.9332    2.6569    0.0000 N   0  0  0  0  0  0  0  0  0  0  0  0
    3.7320   -5.0101    0.0000 N   0  0  0  0  0  0  0  0  0  0  0  0
   12.2044    3.5269    0.0000 N   0  0  0  0  0  0  0  0  0  0  0  0
   12.6127    2.6141    0.0000 N   0  0  0  0  0  0  0  0  0  0  0  0
   13.6070    2.7203    0.0000 N   0  0  0  0  0  0  0  0  0  0  0  0
   17.2590    3.3427    0.0000 N   0  0  0  0  0  0  0  0  0  0  0  0
    7.1962    1.9899    0.0000 C   0  0  1  0  0  0  0  0  0  0  0  0
    6.3301    2.4899    0.0000 C   0  0  1  0  0  0  0  0  0  0  0  0
    7.1962    0.9899    0.0000 C   0  0  2  0  0  0  0  0  0  0  0  0
    5.4641    1.9899    0.0000 C   0  0  1  0  0  0  0  0  0  0  0  0
    6.3301   -0.5101    0.0000 C   0  0  2  0  0  0  0  0  0  0  0  0
    8.0622   -0.5101    0.0000 C   0  0  1  0  0  0  0  0  0  0  0  0
    8.0622    0.4899    0.0000 C   0  0  0  0  0  0  0  0  0  0  0  0
    7.1962   -1.0101    0.0000 C   0  0  0  0  0  0  0  0  0  0  0  0
    5.4641   -1.0101    0.0000 C   0  0  1  0  0  0  0  0  0  0  0  0
    5.4641    2.9899    0.0000 C   0  0  0  0  0  0  0  0  0  0  0  0
    7.5280    3.5647    0.0000 C   0  0  0  0  0  0  0  0  0  0  0  0
    8.9117    2.4507    0.0000 C   0  0  0  0  0  0  0  0  0  0  0  0
    7.1961   -0.0101    0.0000 C   0  0  0  0  0  0  0  0  0  0  0  0
    4.8214    1.2237    0.0000 C   0  0  0  0  0  0  0  0  0  0  0  0
    4.5981   -0.5101    0.0000 C   0  0  2  0  0  0  0  0  0  0  0  0
    6.7528    0.3962    0.0000 C   0  0  0  0  0  0  0  0  0  0  0  0
    4.5981   -2.5101    0.0000 C   0  0  2  0  0  0  0  0  0  0  0  0
    8.9282   -1.0101    0.0000 C   0  0  0  0  0  0  0  0  0  0  0  0
    9.5795    3.1950    0.0000 C   0  0  0  0  0  0  0  0  0  0  0  0
    4.5981   -3.5101    0.0000 C   0  0  1  0  0  0  0  0  0  0  0  0
    3.7320   -4.0101    0.0000 C   0  0  2  0  0  0  0  0  0  0  0  0
    4.5981    0.4899    0.0000 C   0  0  0  0  0  0  0  0  0  0  0  0
    3.7320    0.9899    0.0000 C   0  0  1  0  0  0  0  0  0  0  0  0
    2.8660   -3.5101    0.0000 C   0  0  0  0  0  0  0  0  0  0  0  0
    5.1636    0.2841    0.0000 C   0  0  0  0  0  0  0  0  0  0  0  0
    3.7320    1.9899    0.0000 C   0  0  0  0  0  0  0  0  0  0  0  0
    3.7320   -1.0101    0.0000 C   0  0  0  0  0  0  0  0  0  0  0  0
    2.8660   -2.5101    0.0000 C   0  0  1  0  0  0  0  0  0  0  0  0
   10.5580    2.9888    0.0000 C   0  0  0  0  0  0  0  0  0  0  0  0
    3.0249    0.2828    0.0000 C   0  0  0  0  0  0  0  0  0  0  0  0
    6.3301    1.4217    0.0000 C   0  0  0  0  0  0  0  0  0  0  0  0
    2.0000   -2.0101    0.0000 C   0  0  0  0  0  0  0  0  0  0  0  0
   11.2259    3.7331    0.0000 C   0  0  0  0  0  0  0  0  0  0  0  0
    2.8660   -5.5101    0.0000 C   0  0  0  0  0  0  0  0  0  0  0  0
    4.5981   -5.5101    0.0000 C   0  0  0  0  0  0  0  0  0  0  0  0
   12.9464    4.1973    0.0000 C   0  0  0  0  0  0  0  0  0  0  0  0
   13.8132    3.6988    0.0000 C   0  0  0  0  0  0  0  0  0  0  0  0
   14.7261    4.1071    0.0000 C   0  0  0  0  0  0  0  0  0  0  0  0
   15.5361    3.5207    0.0000 C   0  0  0  0  0  0  0  0  0  0  0  0
   14.8289    5.1018    0.0000 C   0  0  0  0  0  0  0  0  0  0  0  0
   16.4490    3.9291    0.0000 C   0  0  0  0  0  0  0  0  0  0  0  0
   15.7417    5.5101    0.0000 C   0  0  0  0  0  0  0  0  0  0  0  0
   16.5518    4.9238    0.0000 C   0  0  0  0  0  0  0  0  0  0  0  0
    7.9731    1.6451    0.0000 H   0  0  0  0  0  0  0  0  0  0  0  0
    6.5762    0.9899    0.0000 H   0  0  0  0  0  0  0  0  0  0  0  0
    4.8535    1.8822    0.0000 H   0  0  0  0  0  0  0  0  0  0  0  0
    8.0622   -1.1301    0.0000 H   0  0  0  0  0  0  0  0  0  0  0  0
    6.7976   -1.4851    0.0000 H   0  0  0  0  0  0  0  0  0  0  0  0
    7.5947   -1.4851    0.0000 H   0  0  0  0  0  0  0  0  0  0  0  0
    6.0010   -1.3201    0.0000 H   0  0  0  0  0  0  0  0  0  0  0  0
    5.7741    3.5268    0.0000 H   0  0  0  0  0  0  0  0  0  0  0  0
    4.9272    3.2999    0.0000 H   0  0  0  0  0  0  0  0  0  0  0  0
    5.1541    2.4529    0.0000 H   0  0  0  0  0  0  0  0  0  0  0  0
    8.6804    1.8755    0.0000 H   0  0  0  0  0  0  0  0  0  0  0  0
    9.4380    2.1231    0.0000 H   0  0  0  0  0  0  0  0  0  0  0  0
    6.5761   -0.0101    0.0000 H   0  0  0  0  0  0  0  0  0  0  0  0
    7.1961   -0.6301    0.0000 H   0  0  0  0  0  0  0  0  0  0  0  0
    7.8161   -0.0102    0.0000 H   0  0  0  0  0  0  0  0  0  0  0  0
    4.4228    1.6986    0.0000 H   0  0  0  0  0  0  0  0  0  0  0  0
    4.2845    0.9137    0.0000 H   0  0  0  0  0  0  0  0  0  0  0  0
    4.5981   -1.1301    0.0000 H   0  0  0  0  0  0  0  0  0  0  0  0
    7.3147    0.1341    0.0000 H   0  0  0  0  0  0  0  0  0  0  0  0
    7.0148    0.9581    0.0000 H   0  0  0  0  0  0  0  0  0  0  0  0
    6.1908    0.6582    0.0000 H   0  0  0  0  0  0  0  0  0  0  0  0
    4.5981   -1.8901    0.0000 H   0  0  0  0  0  0  0  0  0  0  0  0
    8.6182   -1.5471    0.0000 H   0  0  0  0  0  0  0  0  0  0  0  0
    9.4651   -1.3201    0.0000 H   0  0  0  0  0  0  0  0  0  0  0  0
    9.2382   -0.4732    0.0000 H   0  0  0  0  0  0  0  0  0  0  0  0
    9.8108    3.7703    0.0000 H   0  0  0  0  0  0  0  0  0  0  0  0
    9.0532    3.5227    0.0000 H   0  0  0  0  0  0  0  0  0  0  0  0
    5.1350   -3.2001    0.0000 H   0  0  0  0  0  0  0  0  0  0  0  0
    4.2690   -4.3201    0.0000 H   0  0  0  0  0  0  0  0  0  0  0  0
    2.2554   -3.4025    0.0000 H   0  0  0  0  0  0  0  0  0  0  0  0
    2.6540   -4.0928    0.0000 H   0  0  0  0  0  0  0  0  0  0  0  0
    4.5811    0.0719    0.0000 H   0  0  0  0  0  0  0  0  0  0  0  0
    5.3758   -0.2985    0.0000 H   0  0  0  0  0  0  0  0  0  0  0  0
    5.7462    0.4962    0.0000 H   0  0  0  0  0  0  0  0  0  0  0  0
    3.4220   -0.4732    0.0000 H   0  0  0  0  0  0  0  0  0  0  0  0
    3.1951   -1.3201    0.0000 H   0  0  0  0  0  0  0  0  0  0  0  0
    4.0420   -1.5471    0.0000 H   0  0  0  0  0  0  0  0  0  0  0  0
    2.8660   -1.8901    0.0000 H   0  0  0  0  0  0  0  0  0  0  0  0
   10.3268    2.4136    0.0000 H   0  0  0  0  0  0  0  0  0  0  0  0
   11.0844    2.6612    0.0000 H   0  0  0  0  0  0  0  0  0  0  0  0
    2.5865    0.7212    0.0000 H   0  0  0  0  0  0  0  0  0  0  0  0
    2.5865   -0.1557    0.0000 H   0  0  0  0  0  0  0  0  0  0  0  0
    3.4634   -0.1557    0.0000 H   0  0  0  0  0  0  0  0  0  0  0  0
    6.9290    1.2612    0.0000 H   0  0  0  0  0  0  0  0  0  0  0  0
    6.4906    2.0206    0.0000 H   0  0  0  0  0  0  0  0  0  0  0  0
    5.7312    1.5822    0.0000 H   0  0  0  0  0  0  0  0  0  0  0  0
    2.3100   -1.4732    0.0000 H   0  0  0  0  0  0  0  0  0  0  0  0
    1.4631   -1.7001    0.0000 H   0  0  0  0  0  0  0  0  0  0  0  0
    1.6900   -2.5471    0.0000 H   0  0  0  0  0  0  0  0  0  0  0  0
   11.4571    4.3084    0.0000 H   0  0  0  0  0  0  0  0  0  0  0  0
   10.6995    4.0608    0.0000 H   0  0  0  0  0  0  0  0  0  0  0  0
    6.0010   -3.7001    0.0000 H   0  0  0  0  0  0  0  0  0  0  0  0
    2.5560   -4.9732    0.0000 H   0  0  0  0  0  0  0  0  0  0  0  0
    2.3291   -5.8201    0.0000 H   0  0  0  0  0  0  0  0  0  0  0  0
    3.1760   -6.0471    0.0000 H   0  0  0  0  0  0  0  0  0  0  0  0
    4.2881   -6.0471    0.0000 H   0  0  0  0  0  0  0  0  0  0  0  0
    5.1350   -5.8201    0.0000 H   0  0  0  0  0  0  0  0  0  0  0  0
    4.9081   -4.9732    0.0000 H   0  0  0  0  0  0  0  0  0  0  0  0
   12.8805    4.8138    0.0000 H   0  0  0  0  0  0  0  0  0  0  0  0
   15.4724    2.9040    0.0000 H   0  0  0  0  0  0  0  0  0  0  0  0
   14.3267    5.4654    0.0000 H   0  0  0  0  0  0  0  0  0  0  0  0
   15.8055    6.1269    0.0000 H   0  0  0  0  0  0  0  0  0  0  0  0
   17.1177    5.1769    0.0000 H   0  0  0  0  0  0  0  0  0  0  0  0
   17.8250    3.5958    0.0000 H   0  0  0  0  0  0  0  0  0  0  0  0
   17.1953    2.7260    0.0000 H   0  0  0  0  0  0  0  0  0  0  0  0
 40  1  1  6  0  0  0
  2 19  1  0  0  0  0
  2 28  1  0  0  0  0
  3 21  1  0  0  0  0
  3 43  1  0  0  0  0
 26  4  1  6  0  0  0
 34  4  1  1  0  0  0
 22  5  1  6  0  0  0
  5 48  1  0  0  0  0
  6 34  1  0  0  0  0
  6 45  1  0  0  0  0
  7 24  2  0  0  0  0
  8 28  2  0  0  0  0
 37  9  1  6  0  0  0
  9112  1  0  0  0  0
 10 39  2  0  0  0  0
 11 43  2  0  0  0  0
 12 18  1  0  0  0  0
 12 28  1  0  0  0  0
 12 29  1  0  0  0  0
 38 13  1  1  0  0  0
 13 51  1  0  0  0  0
 13 52  1  0  0  0  0
 14 15  1  0  0  0  0
 14 50  1  0  0  0  0
 14 53  1  0  0  0  0
 15 16  2  0  0  0  0
 16 54  1  0  0  0  0
 17 58  1  0  0  0  0
 17124  1  0  0  0  0
 17125  1  0  0  0  0
 18 19  1  0  0  0  0
 18 20  1  0  0  0  0
 18 61  1  1  0  0  0
 19 21  1  0  0  0  0
 19 27  1  6  0  0  0
 20 24  1  0  0  0  0
 20 30  1  6  0  0  0
 20 62  1  0  0  0  0
 21 31  1  1  0  0  0
 21 63  1  0  0  0  0
 22 25  1  0  0  0  0
 22 26  1  0  0  0  0
 22 33  1  0  0  0  0
 23 24  1  0  0  0  0
 23 25  1  0  0  0  0
 23 35  1  6  0  0  0
 23 64  1  0  0  0  0
 25 65  1  0  0  0  0
 25 66  1  0  0  0  0
 26 32  1  0  0  0  0
 26 67  1  0  0  0  0
 27 68  1  0  0  0  0
 27 69  1  0  0  0  0
 27 70  1  0  0  0  0
 29 36  1  0  0  0  0
 29 71  1  0  0  0  0
 29 72  1  0  0  0  0
 30 73  1  0  0  0  0
 30 74  1  0  0  0  0
 30 75  1  0  0  0  0
 31 42  1  0  0  0  0
 31 76  1  0  0  0  0
 31 77  1  0  0  0  0
 32 39  1  0  0  0  0
 32 44  1  1  0  0  0
 32 78  1  0  0  0  0
 33 79  1  0  0  0  0
 33 80  1  0  0  0  0
 33 81  1  0  0  0  0
 34 37  1  0  0  0  0
 34 82  1  0  0  0  0
 35 83  1  0  0  0  0
 35 84  1  0  0  0  0
 35 85  1  0  0  0  0
 36 46  1  0  0  0  0
 36 86  1  0  0  0  0
 36 87  1  0  0  0  0
 37 38  1  0  0  0  0
 37 88  1  0  0  0  0
 38 41  1  0  0  0  0
 38 89  1  0  0  0  0
 39 40  1  0  0  0  0
 40 43  1  0  0  0  0
 40 47  1  0  0  0  0
 41 45  1  0  0  0  0
 41 90  1  0  0  0  0
 41 91  1  0  0  0  0
 42 92  1  0  0  0  0
 42 93  1  0  0  0  0
 42 94  1  0  0  0  0
 44 95  1  0  0  0  0
 44 96  1  0  0  0  0
 44 97  1  0  0  0  0
 45 49  1  1  0  0  0
 45 98  1  0  0  0  0
 46 50  1  0  0  0  0
 46 99  1  0  0  0  0
 46100  1  0  0  0  0
 47101  1  0  0  0  0
 47102  1  0  0  0  0
 47103  1  0  0  0  0
 48104  1  0  0  0  0
 48105  1  0  0  0  0
 48106  1  0  0  0  0
 49107  1  0  0  0  0
 49108  1  0  0  0  0
 49109  1  0  0  0  0
 50110  1  0  0  0  0
 50111  1  0  0  0  0
 51113  1  0  0  0  0
 51114  1  0  0  0  0
 51115  1  0  0  0  0
 52116  1  0  0  0  0
 52117  1  0  0  0  0
 52118  1  0  0  0  0
 53 54  2  0  0  0  0
 53119  1  0  0  0  0
 54 55  1  0  0  0  0
 55 56  2  0  0  0  0
 55 57  1  0  0  0  0
 56 58  1  0  0  0  0
 56120  1  0  0  0  0
 57 59  2  0  0  0  0
 57121  1  0  0  0  0
 58 60  2  0  0  0  0
 59 60  1  0  0  0  0
 59122  1  0  0  0  0
 60123  1  0  0  0  0
M  END
> <PUBCHEM_COMPOUND_CID>
25242512

> <PUBCHEM_COMPOUND_CANONICALIZED>
1

> <PUBCHEM_CACTVS_COMPLEXITY>
1530

> <PUBCHEM_CACTVS_HBOND_ACCEPTOR>
15

> <PUBCHEM_CACTVS_HBOND_DONOR>
2

> <PUBCHEM_CACTVS_ROTATABLE_BOND>
11

> <PUBCHEM_CACTVS_SUBSKEYS>
AAADcfB/vQAAAAAAAAAAAAAAAAAAAWLAAAA0QAAAAAAAAAABwAAAHwAYCAAADXzxngc+yJNIBgCqA7T3XACCBAQxkgAY2CE4dJgbcL7IkZG/YABmtgDfyAfa7PzOAAAAQAAAAAAAAACAAAAAAAAAAAAAAA==

> <PUBCHEM_IUPAC_OPENEYE_NAME>
(1S,2R,5S,7R,8R,9R,11R,13R,14R)-15-[4-[4-(3-aminophenyl)triazol-1-yl]butyl]-8-[(2S,3R,4S,6R)-4-(dimethylamino)-3-hydroxy-6-methyl-tetrahydropyran-2-yl]oxy-2-ethyl-5-fluoro-9-methoxy-1,5,7,9,11,13-hexamethyl-3,17-dioxa-15-azabicyclo[12.3.0]heptadecane-4,6,12,16-tetrone

> <PUBCHEM_IUPAC_CAS_NAME>
(1S,2R,5S,7R,8R,9R,11R,13R,14R)-15-[4-[4-(3-aminophenyl)-1-triazolyl]butyl]-8-[[(2S,3R,4S,6R)-4-(dimethylamino)-3-hydroxy-6-methyl-2-oxanyl]oxy]-2-ethyl-5-fluoro-9-methoxy-1,5,7,9,11,13-hexamethyl-3,17-dioxa-15-azabicyclo[12.3.0]heptadecane-4,6,12,16-tetrone

> <PUBCHEM_IUPAC_NAME_MARKUP>
(1<I>S</I>,2<I>R</I>,5<I>S</I>,7<I>R</I>,8<I>R</I>,9<I>R</I>,11<I>R</I>,13<I>R</I>,14<I>R</I>)-15-[4-[4-(3-aminophenyl)triazol-1-yl]butyl]-8-[(2<I>S</I>,3<I>R</I>,4<I>S</I>,6<I>R</I>)-4-(dimethylamino)-3-hydroxy-6-methyloxan-2-yl]oxy-2-ethyl-5-fluoro-9-methoxy-1,5,7,9,11,13-hexamethyl-3,17-dioxa-15-azabicyclo[12.3.0]heptadecane-4,6,12,16-tetrone

> <PUBCHEM_IUPAC_NAME>
(1S,2R,5S,7R,8R,9R,11R,13R,14R)-15-[4-[4-(3-aminophenyl)triazol-1-yl]butyl]-8-[(2S,3R,4S,6R)-4-(dimethylamino)-3-hydroxy-6-methyloxan-2-yl]oxy-2-ethyl-5-fluoro-9-methoxy-1,5,7,9,11,13-hexamethyl-3,17-dioxa-15-azabicyclo[12.3.0]heptadecane-4,6,12,16-tetrone

> <PUBCHEM_IUPAC_SYSTEMATIC_NAME>
(1S,2R,5S,7R,8R,9R,11R,13R,14R)-15-[4-[4-(3-aminophenyl)-1,2,3-triazol-1-yl]butyl]-8-[(2S,3R,4S,6R)-4-(dimethylamino)-6-methyl-3-oxidanyl-oxan-2-yl]oxy-2-ethyl-5-fluoranyl-9-methoxy-1,5,7,9,11,13-hexamethyl-3,17-dioxa-15-azabicyclo[12.3.0]heptadecane-4,6,12,16-tetrone

> <PUBCHEM_IUPAC_TRADITIONAL_NAME>
(1S,2R,5S,7R,8R,9R,11R,13R,14R)-15-[4-[4-(3-aminophenyl)triazol-1-yl]butyl]-8-[(2S,3R,4S,6R)-4-(dimethylamino)-3-hydroxy-6-methyl-tetrahydropyran-2-yl]oxy-2-ethyl-5-fluoro-9-methoxy-1,5,7,9,11,13-hexamethyl-3,17-dioxa-15-azabicyclo[12.3.0]heptadecane-4,6,12,16-diquinone

> <PUBCHEM_IUPAC_INCHI>
InChI=1S/C43H65FN6O10/c1-12-32-43(8)35(50(40(55)60-43)19-14-13-18-49-23-30(46-47-49)28-16-15-17-29(45)21-28)26(4)33(51)24(2)22-41(6,56-11)37(27(5)36(53)42(7,44)39(54)58-32)59-38-34(52)31(48(9)10)20-25(3)57-38/h15-17,21,23-27,31-32,34-35,37-38,52H,12-14,18-20,22,45H2,1-11H3/t24-,25-,26+,27+,31+,32-,34-,35-,37-,38+,41-,42+,43-/m1/s1

> <PUBCHEM_IUPAC_INCHIKEY>
IXXFZUPTQVDPPK-ZAWHAJPISA-N

> <PUBCHEM_XLOGP3_AA>
4.3

> <PUBCHEM_EXACT_MASS>
844.47462045

> <PUBCHEM_MOLECULAR_FORMULA>
C43H65FN6O10

> <PUBCHEM_MOLECULAR_WEIGHT>
845.0

> <PUBCHEM_OPENEYE_CAN_SMILES>
CCC1C2(C(C(C(=O)C(CC(C(C(C(=O)C(C(=O)O1)(C)F)C)OC3C(C(CC(O3)C)N(C)C)O)(C)OC)C)C)N(C(=O)O2)CCCCN4C=C(N=N4)C5=CC(=CC=C5)N)C

> <PUBCHEM_OPENEYE_ISO_SMILES>
CC[C@@H]1[C@@]2([C@@H]([C@H](C(=O)[C@@H](C[C@@]([C@@H]([C@H](C(=O)[C@](C(=O)O1)(C)F)C)O[C@H]3[C@@H]([C@H](C[C@H](O3)C)N(C)C)O)(C)OC)C)C)N(C(=O)O2)CCCCN4C=C(N=N4)C5=CC(=CC=C5)N)C

> <PUBCHEM_CACTVS_TPSA>
198

> <PUBCHEM_MONOISOTOPIC_WEIGHT>
844.47462045

> <PUBCHEM_TOTAL_CHARGE>
0

> <PUBCHEM_HEAVY_ATOM_COUNT>
60

> <PUBCHEM_ATOM_DEF_STEREO_COUNT>
13

> <PUBCHEM_ATOM_UDEF_STEREO_COUNT>
0

> <PUBCHEM_BOND_DEF_STEREO_COUNT>
0

> <PUBCHEM_BOND_UDEF_STEREO_COUNT>
0

> <PUBCHEM_ISOTOPIC_ATOM_COUNT>
0

> <PUBCHEM_COMPONENT_COUNT>
1

> <PUBCHEM_CACTVS_TAUTO_COUNT>
-1

> <PUBCHEM_COORDINATE_TYPE>
1
5
255

> <PUBCHEM_BONDANNOTATIONS>
40  1  6
38  13  5
14  15  8
14  53  8
15  16  8
16  54  8
18  61  5
19  27  6
20  30  6
21  31  5
23  35  6
32  44  5
26  4  6
34  4  5
45  49  5
22  5  6
53  54  8
55  56  8
55  57  8
56  58  8
57  59  8
58  60  8
59  60  8
37  9  6

$$$$
168354944
  -OEChem-02112401262D

126130  0     1  0  0  0  0  0999 V2000
    2.7661    1.4988    0.0000 F   0  0  0  0  0  0  0  0  0  0  0  0
    6.5393    3.7117    0.0000 O   0  0  0  0  0  0  0  0  0  0  0  0
    5.4641   -1.7601    0.0000 O   0  0  0  0  0  0  0  0  0  0  0  0
    4.5981    2.7399    0.0000 O   0  0  0  0  0  0  0  0  0  0  0  0
    3.7320   -1.7601    0.0000 O   0  0  0  0  0  0  0  0  0  0  0  0
    6.0713    0.7058    0.0000 O   0  0  0  0  0  0  0  0  0  0  0  0
    8.9282    1.2399    0.0000 O   0  0  0  0  0  0  0  0  0  0  0  0
    5.4641   -3.7601    0.0000 O   0  0  0  0  0  0  0  0  0  0  0  0
    8.0280    4.6808    0.0000 O   0  0  0  0  0  0  0  0  0  0  0  0
    5.4641    1.2399    0.0000 O   0  0  0  0  0  0  0  0  0  0  0  0
    2.8660    2.7399    0.0000 O   0  0  0  0  0  0  0  0  0  0  0  0
    7.9332    2.9069    0.0000 N   0  0  0  0  0  0  0  0  0  0  0  0
    3.7320   -4.7601    0.0000 N   0  3  0  0  0  0  0  0  0  0  0  0
   12.2044    3.7769    0.0000 N   0  0  0  0  0  0  0  0  0  0  0  0
   12.6127    2.8641    0.0000 N   0  0  0  0  0  0  0  0  0  0  0  0
   13.6070    2.9703    0.0000 N   0  0  0  0  0  0  0  0  0  0  0  0
   17.2590    3.5927    0.0000 N   0  0  0  0  0  0  0  0  0  0  0  0
    7.1962    2.2399    0.0000 C   0  0  1  0  0  0  0  0  0  0  0  0
    6.3301    2.7399    0.0000 C   0  0  1  0  0  0  0  0  0  0  0  0
    7.1962    1.2399    0.0000 C   0  0  2  0  0  0  0  0  0  0  0  0
    5.4641    2.2399    0.0000 C   0  0  1  0  0  0  0  0  0  0  0  0
    6.3301   -0.2601    0.0000 C   0  0  1  0  0  0  0  0  0  0  0  0
    5.4641   -0.7601    0.0000 C   0  0  1  0  0  0  0  0  0  0  0  0
    8.0622   -0.2601    0.0000 C   0  0  2  0  0  0  0  0  0  0  0  0
    7.1962   -0.7601    0.0000 C   0  0  0  0  0  0  0  0  0  0  0  0
    8.0622    0.7399    0.0000 C   0  0  0  0  0  0  0  0  0  0  0  0
    5.4641    3.2399    0.0000 C   0  0  0  0  0  0  0  0  0  0  0  0
    3.7320   -3.7601    0.0000 C   0  0  2  0  0  0  0  0  0  0  0  0
    4.5981   -0.2601    0.0000 C   0  0  2  0  0  0  0  0  0  0  0  0
    7.5280    3.8147    0.0000 C   0  0  0  0  0  0  0  0  0  0  0  0
    4.5981   -3.2601    0.0000 C   0  0  2  0  0  0  0  0  0  0  0  0
    8.9117    2.7007    0.0000 C   0  0  0  0  0  0  0  0  0  0  0  0
    4.5981   -2.2601    0.0000 C   0  0  2  0  0  0  0  0  0  0  0  0
    7.1961    0.2399    0.0000 C   0  0  0  0  0  0  0  0  0  0  0  0
    4.8214    1.4737    0.0000 C   0  0  0  0  0  0  0  0  0  0  0  0
    2.8660   -3.2601    0.0000 C   0  0  0  0  0  0  0  0  0  0  0  0
    2.8660   -2.2601    0.0000 C   0  0  1  0  0  0  0  0  0  0  0  0
    6.7528    0.6462    0.0000 C   0  0  0  0  0  0  0  0  0  0  0  0
    8.9282   -0.7601    0.0000 C   0  0  0  0  0  0  0  0  0  0  0  0
    9.5795    3.4450    0.0000 C   0  0  0  0  0  0  0  0  0  0  0  0
    4.5981    0.7399    0.0000 C   0  0  0  0  0  0  0  0  0  0  0  0
    3.7320    1.2399    0.0000 C   0  0  1  0  0  0  0  0  0  0  0  0
    3.7320   -0.7601    0.0000 C   0  0  0  0  0  0  0  0  0  0  0  0
    3.7320    2.2399    0.0000 C   0  0  0  0  0  0  0  0  0  0  0  0
    5.1636    0.5341    0.0000 C   0  0  0  0  0  0  0  0  0  0  0  0
    3.7320   -5.7601    0.0000 C   0  0  0  0  0  0  0  0  0  0  0  0
    2.7320   -4.7601    0.0000 C   0  0  0  0  0  0  0  0  0  0  0  0
    2.0000   -1.7601    0.0000 C   0  0  0  0  0  0  0  0  0  0  0  0
   10.5580    3.2388    0.0000 C   0  0  0  0  0  0  0  0  0  0  0  0
    3.0249    0.5328    0.0000 C   0  0  0  0  0  0  0  0  0  0  0  0
    6.3301    1.6717    0.0000 C   0  0  0  0  0  0  0  0  0  0  0  0
   11.2259    3.9831    0.0000 C   0  0  0  0  0  0  0  0  0  0  0  0
   12.9464    4.4473    0.0000 C   0  0  0  0  0  0  0  0  0  0  0  0
   13.8132    3.9488    0.0000 C   0  0  0  0  0  0  0  0  0  0  0  0
   14.7261    4.3571    0.0000 C   0  0  0  0  0  0  0  0  0  0  0  0
   15.5361    3.7707    0.0000 C   0  0  0  0  0  0  0  0  0  0  0  0
   14.8289    5.3518    0.0000 C   0  0  0  0  0  0  0  0  0  0  0  0
   16.4490    4.1791    0.0000 C   0  0  0  0  0  0  0  0  0  0  0  0
   15.7417    5.7601    0.0000 C   0  0  0  0  0  0  0  0  0  0  0  0
   16.5518    5.1738    0.0000 C   0  0  0  0  0  0  0  0  0  0  0  0
    7.9731    1.8951    0.0000 H   0  0  0  0  0  0  0  0  0  0  0  0
    6.5762    1.2399    0.0000 H   0  0  0  0  0  0  0  0  0  0  0  0
    4.8535    2.1322    0.0000 H   0  0  0  0  0  0  0  0  0  0  0  0
    6.0010   -1.0701    0.0000 H   0  0  0  0  0  0  0  0  0  0  0  0
    8.0622   -0.8801    0.0000 H   0  0  0  0  0  0  0  0  0  0  0  0
    6.7976   -1.2351    0.0000 H   0  0  0  0  0  0  0  0  0  0  0  0
    7.5947   -1.2351    0.0000 H   0  0  0  0  0  0  0  0  0  0  0  0
    5.7741    3.7768    0.0000 H   0  0  0  0  0  0  0  0  0  0  0  0
    4.9272    3.5499    0.0000 H   0  0  0  0  0  0  0  0  0  0  0  0
    5.1541    2.7029    0.0000 H   0  0  0  0  0  0  0  0  0  0  0  0
    4.2690   -4.0701    0.0000 H   0  0  0  0  0  0  0  0  0  0  0  0
    4.5981   -0.8801    0.0000 H   0  0  0  0  0  0  0  0  0  0  0  0
    5.1350   -2.9501    0.0000 H   0  0  0  0  0  0  0  0  0  0  0  0
    8.6804    2.1255    0.0000 H   0  0  0  0  0  0  0  0  0  0  0  0
    9.4380    2.3731    0.0000 H   0  0  0  0  0  0  0  0  0  0  0  0
    4.5981   -1.6401    0.0000 H   0  0  0  0  0  0  0  0  0  0  0  0
    6.5761    0.2399    0.0000 H   0  0  0  0  0  0  0  0  0  0  0  0
    7.1961   -0.3801    0.0000 H   0  0  0  0  0  0  0  0  0  0  0  0
    7.8161    0.2398    0.0000 H   0  0  0  0  0  0  0  0  0  0  0  0
    4.4228    1.9486    0.0000 H   0  0  0  0  0  0  0  0  0  0  0  0
    4.2845    1.1636    0.0000 H   0  0  0  0  0  0  0  0  0  0  0  0
    2.2554   -3.1525    0.0000 H   0  0  0  0  0  0  0  0  0  0  0  0
    2.6540   -3.8428    0.0000 H   0  0  0  0  0  0  0  0  0  0  0  0
    4.3520   -4.7601    0.0000 H   0  0  0  0  0  0  0  0  0  0  0  0
    2.8660   -1.6401    0.0000 H   0  0  0  0  0  0  0  0  0  0  0  0
    7.3147    0.3841    0.0000 H   0  0  0  0  0  0  0  0  0  0  0  0
    7.0148    1.2081    0.0000 H   0  0  0  0  0  0  0  0  0  0  0  0
    6.1908    0.9082    0.0000 H   0  0  0  0  0  0  0  0  0  0  0  0
    8.6182   -1.2971    0.0000 H   0  0  0  0  0  0  0  0  0  0  0  0
    9.4651   -1.0701    0.0000 H   0  0  0  0  0  0  0  0  0  0  0  0
    9.2382   -0.2232    0.0000 H   0  0  0  0  0  0  0  0  0  0  0  0
    9.8108    4.0203    0.0000 H   0  0  0  0  0  0  0  0  0  0  0  0
    9.0532    3.7727    0.0000 H   0  0  0  0  0  0  0  0  0  0  0  0
    3.4220   -0.2232    0.0000 H   0  0  0  0  0  0  0  0  0  0  0  0
    3.1951   -1.0701    0.0000 H   0  0  0  0  0  0  0  0  0  0  0  0
    4.0420   -1.2971    0.0000 H   0  0  0  0  0  0  0  0  0  0  0  0
    4.5811    0.3219    0.0000 H   0  0  0  0  0  0  0  0  0  0  0  0
    5.3758   -0.0485    0.0000 H   0  0  0  0  0  0  0  0  0  0  0  0
    5.7462    0.7462    0.0000 H   0  0  0  0  0  0  0  0  0  0  0  0
    3.1120   -5.7601    0.0000 H   0  0  0  0  0  0  0  0  0  0  0  0
    3.7320   -6.3801    0.0000 H   0  0  0  0  0  0  0  0  0  0  0  0
    4.3520   -5.7601    0.0000 H   0  0  0  0  0  0  0  0  0  0  0  0
    2.7320   -4.1401    0.0000 H   0  0  0  0  0  0  0  0  0  0  0  0
    2.1120   -4.7601    0.0000 H   0  0  0  0  0  0  0  0  0  0  0  0
    2.7320   -5.3801    0.0000 H   0  0  0  0  0  0  0  0  0  0  0  0
    2.3100   -1.2232    0.0000 H   0  0  0  0  0  0  0  0  0  0  0  0
    1.4631   -1.4501    0.0000 H   0  0  0  0  0  0  0  0  0  0  0  0
    1.6900   -2.2971    0.0000 H   0  0  0  0  0  0  0  0  0  0  0  0
   10.3268    2.6636    0.0000 H   0  0  0  0  0  0  0  0  0  0  0  0
   11.0844    2.9112    0.0000 H   0  0  0  0  0  0  0  0  0  0  0  0
    6.0010   -3.4501    0.0000 H   0  0  0  0  0  0  0  0  0  0  0  0
    2.5865    0.9712    0.0000 H   0  0  0  0  0  0  0  0  0  0  0  0
    2.5865    0.0943    0.0000 H   0  0  0  0  0  0  0  0  0  0  0  0
    3.4634    0.0943    0.0000 H   0  0  0  0  0  0  0  0  0  0  0  0
    6.9290    1.5112    0.0000 H   0  0  0  0  0  0  0  0  0  0  0  0
    6.4906    2.2706    0.0000 H   0  0  0  0  0  0  0  0  0  0  0  0
    5.7312    1.8322    0.0000 H   0  0  0  0  0  0  0  0  0  0  0  0
   11.4571    4.5584    0.0000 H   0  0  0  0  0  0  0  0  0  0  0  0
   10.6995    4.3108    0.0000 H   0  0  0  0  0  0  0  0  0  0  0  0
   12.8805    5.0638    0.0000 H   0  0  0  0  0  0  0  0  0  0  0  0
   15.4724    3.1540    0.0000 H   0  0  0  0  0  0  0  0  0  0  0  0
   14.3267    5.7154    0.0000 H   0  0  0  0  0  0  0  0  0  0  0  0
   15.8055    6.3769    0.0000 H   0  0  0  0  0  0  0  0  0  0  0  0
   17.1177    5.4269    0.0000 H   0  0  0  0  0  0  0  0  0  0  0  0
   17.8250    3.8458    0.0000 H   0  0  0  0  0  0  0  0  0  0  0  0
   17.1953    2.9760    0.0000 H   0  0  0  0  0  0  0  0  0  0  0  0
 42  1  1  6  0  0  0
  2 19  1  0  0  0  0
  2 30  1  0  0  0  0
 23  3  1  6  0  0  0
 33  3  1  1  0  0  0
  4 21  1  0  0  0  0
  4 44  1  0  0  0  0
  5 33  1  0  0  0  0
  5 37  1  0  0  0  0
 22  6  1  6  0  0  0
  6 51  1  0  0  0  0
  7 26  2  0  0  0  0
 31  8  1  6  0  0  0
  8111  1  0  0  0  0
  9 30  2  0  0  0  0
 10 41  2  0  0  0  0
 11 44  2  0  0  0  0
 12 18  1  0  0  0  0
 12 30  1  0  0  0  0
 12 32  1  0  0  0  0
 28 13  1  1  0  0  0
 13 46  1  0  0  0  0
 13 47  1  0  0  0  0
 13 84  1  0  0  0  0
 14 15  1  0  0  0  0
 14 52  1  0  0  0  0
 14 53  1  0  0  0  0
 15 16  2  0  0  0  0
 16 54  1  0  0  0  0
 17 58  1  0  0  0  0
 17125  1  0  0  0  0
 17126  1  0  0  0  0
 18 19  1  0  0  0  0
 18 20  1  0  0  0  0
 18 61  1  1  0  0  0
 19 21  1  0  0  0  0
 19 27  1  6  0  0  0
 20 26  1  0  0  0  0
 20 34  1  6  0  0  0
 20 62  1  0  0  0  0
 21 35  1  1  0  0  0
 21 63  1  0  0  0  0
 22 23  1  0  0  0  0
 22 25  1  0  0  0  0
 22 38  1  0  0  0  0
 23 29  1  0  0  0  0
 23 64  1  0  0  0  0
 24 25  1  0  0  0  0
 24 26  1  0  0  0  0
 24 39  1  6  0  0  0
 24 65  1  0  0  0  0
 25 66  1  0  0  0  0
 25 67  1  0  0  0  0
 27 68  1  0  0  0  0
 27 69  1  0  0  0  0
 27 70  1  0  0  0  0
 28 31  1  0  0  0  0
 28 36  1  0  0  0  0
 28 71  1  0  0  0  0
 29 41  1  0  0  0  0
 29 43  1  1  0  0  0
 29 72  1  0  0  0  0
 31 33  1  0  0  0  0
 31 73  1  0  0  0  0
 32 40  1  0  0  0  0
 32 74  1  0  0  0  0
 32 75  1  0  0  0  0
 33 76  1  0  0  0  0
 34 77  1  0  0  0  0
 34 78  1  0  0  0  0
 34 79  1  0  0  0  0
 35 45  1  0  0  0  0
 35 80  1  0  0  0  0
 35 81  1  0  0  0  0
 36 37  1  0  0  0  0
 36 82  1  0  0  0  0
 36 83  1  0  0  0  0
 37 48  1  1  0  0  0
 37 85  1  0  0  0  0
 38 86  1  0  0  0  0
 38 87  1  0  0  0  0
 38 88  1  0  0  0  0
 39 89  1  0  0  0  0
 39 90  1  0  0  0  0
 39 91  1  0  0  0  0
 40 49  1  0  0  0  0
 40 92  1  0  0  0  0
 40 93  1  0  0  0  0
 41 42  1  0  0  0  0
 42 44  1  0  0  0  0
 42 50  1  0  0  0  0
 43 94  1  0  0  0  0
 43 95  1  0  0  0  0
 43 96  1  0  0  0  0
 45 97  1  0  0  0  0
 45 98  1  0  0  0  0
 45 99  1  0  0  0  0
 46100  1  0  0  0  0
 46101  1  0  0  0  0
 46102  1  0  0  0  0
 47103  1  0  0  0  0
 47104  1  0  0  0  0
 47105  1  0  0  0  0
 48106  1  0  0  0  0
 48107  1  0  0  0  0
 48108  1  0  0  0  0
 49 52  1  0  0  0  0
 49109  1  0  0  0  0
 49110  1  0  0  0  0
 50112  1  0  0  0  0
 50113  1  0  0  0  0
 50114  1  0  0  0  0
 51115  1  0  0  0  0
 51116  1  0  0  0  0
 51117  1  0  0  0  0
 52118  1  0  0  0  0
 52119  1  0  0  0  0
 53 54  2  0  0  0  0
 53120  1  0  0  0  0
 54 55  1  0  0  0  0
 55 56  2  0  0  0  0
 55 57  1  0  0  0  0
 56 58  1  0  0  0  0
 56121  1  0  0  0  0
 57 59  2  0  0  0  0
 57122  1  0  0  0  0
 58 60  2  0  0  0  0
 59 60  1  0  0  0  0
 59123  1  0  0  0  0
 60124  1  0  0  0  0
M  CHG  1  13   1
M  END
> <PUBCHEM_COMPOUND_CID>
168354944

> <PUBCHEM_COMPOUND_CANONICALIZED>
1

> <PUBCHEM_CACTVS_COMPLEXITY>
1530

> <PUBCHEM_CACTVS_HBOND_ACCEPTOR>
14

> <PUBCHEM_CACTVS_HBOND_DONOR>
3

> <PUBCHEM_CACTVS_ROTATABLE_BOND>
11

> <PUBCHEM_CACTVS_SUBSKEYS>
AAADcfB/vQAAAAAAAAAAAAAAAAAAAWLAAAA0QAAAAAAAAAABwAAAHwAYCAAADXzxngc+yJPIBgCqA7T3XACCBAQxkgAY2KE4dJgbcL7IkZG/YABmtgDfyAfa7PzOAAAAQAAAAAAAAACAAAAAAAAAAAAAAA==

> <PUBCHEM_IUPAC_OPENEYE_NAME>
[(2S,3R,4S,6R)-2-[[(1S,2R,5S,7R,8R,9R,11R,13R,14R)-15-[4-[4-(3-aminophenyl)triazol-1-yl]butyl]-2-ethyl-5-fluoro-9-methoxy-1,5,7,9,11,13-hexamethyl-4,6,12,16-tetraoxo-3,17-dioxa-15-azabicyclo[12.3.0]heptadecan-8-yl]oxy]-3-hydroxy-6-methyl-tetrahydropyran-4-yl]-dimethyl-ammonium

> <PUBCHEM_IUPAC_CAS_NAME>
[(2S,3R,4S,6R)-2-[[(1S,2R,5S,7R,8R,9R,11R,13R,14R)-15-[4-[4-(3-aminophenyl)-1-triazolyl]butyl]-2-ethyl-5-fluoro-9-methoxy-1,5,7,9,11,13-hexamethyl-4,6,12,16-tetraoxo-3,17-dioxa-15-azabicyclo[12.3.0]heptadecan-8-yl]oxy]-3-hydroxy-6-methyl-4-oxanyl]-dimethylammonium

> <PUBCHEM_IUPAC_NAME_MARKUP>
[(2<I>S</I>,3<I>R</I>,4<I>S</I>,6<I>R</I>)-2-[[(1<I>S</I>,2<I>R</I>,5<I>S</I>,7<I>R</I>,8<I>R</I>,9<I>R</I>,11<I>R</I>,13<I>R</I>,14<I>R</I>)-15-[4-[4-(3-aminophenyl)triazol-1-yl]butyl]-2-ethyl-5-fluoro-9-methoxy-1,5,7,9,11,13-hexamethyl-4,6,12,16-tetraoxo-3,17-dioxa-15-azabicyclo[12.3.0]heptadecan-8-yl]oxy]-3-hydroxy-6-methyloxan-4-yl]-dimethylazanium

> <PUBCHEM_IUPAC_NAME>
[(2S,3R,4S,6R)-2-[[(1S,2R,5S,7R,8R,9R,11R,13R,14R)-15-[4-[4-(3-aminophenyl)triazol-1-yl]butyl]-2-ethyl-5-fluoro-9-methoxy-1,5,7,9,11,13-hexamethyl-4,6,12,16-tetraoxo-3,17-dioxa-15-azabicyclo[12.3.0]heptadecan-8-yl]oxy]-3-hydroxy-6-methyloxan-4-yl]-dimethylazanium

> <PUBCHEM_IUPAC_SYSTEMATIC_NAME>
[(2S,3R,4S,6R)-2-[[(1S,2R,5S,7R,8R,9R,11R,13R,14R)-15-[4-[4-(3-aminophenyl)-1,2,3-triazol-1-yl]butyl]-2-ethyl-5-fluoranyl-9-methoxy-1,5,7,9,11,13-hexamethyl-4,6,12,16-tetrakis(oxidanylidene)-3,17-dioxa-15-azabicyclo[12.3.0]heptadecan-8-yl]oxy]-6-methyl-3-oxidanyl-oxan-4-yl]-dimethyl-azanium

> <PUBCHEM_IUPAC_TRADITIONAL_NAME>
[(2S,3R,4S,6R)-2-[[(1S,2R,5S,7R,8R,9R,11R,13R,14R)-15-[4-[4-(3-aminophenyl)triazol-1-yl]butyl]-2-ethyl-5-fluoro-4,6,12,16-tetraketo-9-methoxy-1,5,7,9,11,13-hexamethyl-3,17-dioxa-15-azabicyclo[12.3.0]heptadecan-8-yl]oxy]-3-hydroxy-6-methyl-tetrahydropyran-4-yl]-dimethyl-ammonium

> <PUBCHEM_IUPAC_INCHI>
InChI=1S/C43H65FN6O10/c1-12-32-43(8)35(50(40(55)60-43)19-14-13-18-49-23-30(46-47-49)28-16-15-17-29(45)21-28)26(4)33(51)24(2)22-41(6,56-11)37(27(5)36(53)42(7,44)39(54)58-32)59-38-34(52)31(48(9)10)20-25(3)57-38/h15-17,21,23-27,31-32,34-35,37-38,52H,12-14,18-20,22,45H2,1-11H3/p+1/t24-,25-,26+,27+,31+,32-,34-,35-,37-,38+,41-,42+,43-/m1/s1

> <PUBCHEM_IUPAC_INCHIKEY>
IXXFZUPTQVDPPK-ZAWHAJPISA-O

> <PUBCHEM_XLOGP3_AA>
4.3

> <PUBCHEM_EXACT_MASS>
845.48244549

> <PUBCHEM_MOLECULAR_FORMULA>
C43H66FN6O10+

> <PUBCHEM_MOLECULAR_WEIGHT>
846.0

> <PUBCHEM_OPENEYE_CAN_SMILES>
CCC1C2(C(C(C(=O)C(CC(C(C(C(=O)C(C(=O)O1)(C)F)C)OC3C(C(CC(O3)C)[NH+](C)C)O)(C)OC)C)C)N(C(=O)O2)CCCCN4C=C(N=N4)C5=CC(=CC=C5)N)C

> <PUBCHEM_OPENEYE_ISO_SMILES>
CC[C@@H]1[C@@]2([C@@H]([C@H](C(=O)[C@@H](C[C@@]([C@@H]([C@H](C(=O)[C@](C(=O)O1)(C)F)C)O[C@H]3[C@@H]([C@H](C[C@H](O3)C)[NH+](C)C)O)(C)OC)C)C)N(C(=O)O2)CCCCN4C=C(N=N4)C5=CC(=CC=C5)N)C

> <PUBCHEM_CACTVS_TPSA>
199

> <PUBCHEM_MONOISOTOPIC_WEIGHT>
845.48244549

> <PUBCHEM_TOTAL_CHARGE>
1

> <PUBCHEM_HEAVY_ATOM_COUNT>
60

> <PUBCHEM_ATOM_DEF_STEREO_COUNT>
13

> <PUBCHEM_ATOM_UDEF_STEREO_COUNT>
0

> <PUBCHEM_BOND_DEF_STEREO_COUNT>
0

> <PUBCHEM_BOND_UDEF_STEREO_COUNT>
0

> <PUBCHEM_ISOTOPIC_ATOM_COUNT>
0

> <PUBCHEM_COMPONENT_COUNT>
1

> <PUBCHEM_CACTVS_TAUTO_COUNT>
-1

> <PUBCHEM_COORDINATE_TYPE>
1
5
255

> <PUBCHEM_BONDANNOTATIONS>
42  1  6
28  13  5
14  15  8
14  53  8
15  16  8
16  54  8
18  61  5
19  27  6
20  34  6
21  35  5
24  39  6
29  43  5
23  3  6
33  3  5
37  48  5
53  54  8
55  56  8
55  57  8
56  58  8
57  59  8
58  60  8
59  60  8
22  6  6
31  8  6

$$$$
